
     RDKit          3D

  4  3  0  0  0  0  0  0  0  0999 V2000
    1.6348   -0.0565    0.0384 O   0  0  0  0  0  0  0  0  0  0  0  0
   -0.0441    0.0009   -0.0179 P   0  0  0  0  0  0  0  0  0  0  0  0
   -0.8405   -1.2759   -0.0140 O   0  0  0  0  0  0  0  0  0  0  0  0
   -0.7502    1.3315   -0.0065 O   0  0  0  0  0  0  0  0  0  0  0  0
  1  2  1  0
  2  3  2  0
  2  4  2  0
M  CHG  1   1  -1
M  END
