5ok2
 OpenBabel05292523143D

 27 27  0  0  1  0  0  0  0  0999 V2000
    9.6640   -5.3213   11.4377 H   0  0  0  0  0  0  0  0  0  0  0  0
   10.8416   -7.5962   13.8460 H   0  0  0  0  0  0  0  0  0  0  0  0
   11.4395   -6.5055   11.0520 H   0  0  0  0  0  0  0  0  0  0  0  0
   12.0639   -3.5832   12.5349 H   0  0  0  0  0  0  0  0  0  0  0  0
   15.6506   -7.2570   13.7997 H   0  0  0  0  0  0  0  0  0  0  0  0
   13.4155   -9.9138   13.5502 H   0  0  0  0  0  0  0  0  0  0  0  0
   12.7641   -8.5908   11.7248 H   0  0  0  0  0  0  0  0  0  0  0  0
   14.9767   -8.9059   13.8250 H   0  0  0  0  0  0  0  0  0  0  0  0
   13.2572   -7.1892   14.3640 H   0  0  0  0  0  0  0  0  0  0  0  0
    9.9405   -9.2645   12.6108 H   0  0  0  0  0  0  0  0  0  0  0  0
   12.0733   -5.2811   13.7695 H   0  0  0  0  0  0  0  0  0  0  0  0
   16.7210   -8.9880   11.5610 P   0  0  1  0  0  0  0  0  0  0  0  0
   16.4160  -10.4630   11.7880 O   0  0  0  0  0  0  0  0  0  0  0  0
   17.8340   -8.5300   12.4700 O   0  5  0  0  0  0  0  0  0  0  0  0
   16.9240   -8.6140   10.1240 O   0  0  0  0  0  0  0  0  0  0  0  0
   12.3060   -5.4780   12.7230 C   0  0  1  0  0  0  0  0  0  0  0  0
   12.3950   -4.3120   12.0050 O   0  0  0  0  0  0  0  0  0  0  0  0
   11.2080   -6.3590   12.1070 C   0  0  2  0  0  0  0  0  0  0  0  0
    9.9340   -5.7140   12.2710 O   0  0  0  0  0  0  0  0  0  0  0  0
   11.1440   -7.7010   12.8040 C   0  0  1  0  0  0  0  0  0  0  0  0
   10.1950   -8.5090   12.0760 O   0  0  0  0  0  0  0  0  0  0  0  0
   12.5180   -8.3500   12.7590 C   0  0  2  0  0  0  0  0  0  0  0  0
   12.5250   -9.5560   13.5240 O   0  0  0  0  0  0  0  0  0  0  0  0
   13.5560   -7.3730   13.3320 C   0  0  2  0  0  0  0  0  0  0  0  0
   13.5780   -6.1580   12.5780 O   0  0  0  0  0  0  0  0  0  0  0  0
   14.9680   -7.9480   13.3050 C   0  0  0  0  0  0  0  0  0  0  0  0
   15.3860   -8.1420   11.9490 O   0  0  0  0  0  0  0  0  0  0  0  0
  1 19  1  0  0  0  0
  4 17  1  0  0  0  0
  5 26  1  0  0  0  0
  6 23  1  0  0  0  0
  8 26  1  0  0  0  0
 10 21  1  0  0  0  0
 12 13  1  1  0  0  0
 12 14  1  0  0  0  0
 12 15  2  0  0  0  0
 12 27  1  0  0  0  0
 16 11  1  1  0  0  0
 16 17  1  0  0  0  0
 16 18  1  0  0  0  0
 16 25  1  0  0  0  0
 18  3  1  6  0  0  0
 18 19  1  0  0  0  0
 18 20  1  0  0  0  0
 20  2  1  1  0  0  0
 20 21  1  0  0  0  0
 20 22  1  0  0  0  0
 22  7  1  6  0  0  0
 22 23  1  0  0  0  0
 22 24  1  0  0  0  0
 24  9  1  1  0  0  0
 24 25  1  0  0  0  0
 24 26  1  0  0  0  0
 26 27  1  0  0  0  0
M  CHG  1  14  -1
M  END
