5ok1
 OpenBabel05162517513D

 30 30  0  0  1  0  0  0  0  0999 V2000
   12.7303   -7.3031   14.0840 H   0  0  0  0  0  0  0  0  0  0  0  0
   11.4850   -5.3840   13.1802 H   0  0  0  0  0  0  0  0  0  0  0  0
   14.3384   -9.1150   13.8077 H   0  0  0  0  0  0  0  0  0  0  0  0
   10.8192   -6.8878   10.6273 H   0  0  0  0  0  0  0  0  0  0  0  0
    9.1212   -5.6315   10.8338 H   0  0  0  0  0  0  0  0  0  0  0  0
   12.2869   -8.7694   11.4655 H   0  0  0  0  0  0  0  0  0  0  0  0
    9.3853   -9.4352   12.7974 H   0  0  0  0  0  0  0  0  0  0  0  0
   10.2975   -7.5973   13.5083 H   0  0  0  0  0  0  0  0  0  0  0  0
   15.0874   -7.5103   13.6734 H   0  0  0  0  0  0  0  0  0  0  0  0
   12.3947   -9.7159   14.0286 H   0  0  0  0  0  0  0  0  0  0  0  0
   16.3230   -9.1135   11.6125 P   0  0  1  0  0  0  0  0  0  0  0  0
   11.3193   -3.0274   11.7093 P   0  0  2  0  0  0  0  0  0  0  0  0
   16.2207  -10.6061   11.7309 O   0  0  0  0  0  0  0  0  0  0  0  0
   17.3859   -8.6410   12.5532 O   0  5  0  0  0  0  0  0  0  0  0  0
   16.6828   -8.6903   10.1990 O   0  0  0  0  0  0  0  0  0  0  0  0
   11.7765   -5.6892   12.1752 C   0  0  1  0  0  0  0  0  0  0  0  0
   11.9361   -4.5019   11.3679 O   0  0  0  0  0  0  0  0  0  0  0  0
   11.6179   -2.5551   13.1201 O   0  0  0  0  0  0  0  0  0  0  0  0
   10.6423   -6.6000   11.6636 C   0  0  2  0  0  0  0  0  0  0  0  0
    9.3933   -5.8731   11.7221 O   0  0  0  0  0  0  0  0  0  0  0  0
    9.8119   -2.9663   11.4792 O   0  5  0  0  0  0  0  0  0  0  0  0
   10.5985   -7.8989   12.5050 C   0  0  1  0  0  0  0  0  0  0  0  0
    9.6277   -8.8660   12.0633 O   0  0  0  0  0  0  0  0  0  0  0  0
   11.9998   -2.1469   10.6527 O   0  0  0  0  0  0  0  0  0  0  0  0
   11.9782   -8.5491   12.4874 C   0  0  2  0  0  0  0  0  0  0  0  0
   11.9243   -9.7990   13.1959 O   0  0  0  0  0  0  0  0  0  0  0  0
   13.0169   -7.5755   13.0682 C   0  0  2  0  0  0  0  0  0  0  0  0
   13.0399   -6.3983   12.2358 O   0  0  0  0  0  0  0  0  0  0  0  0
   14.4037   -8.2137   13.1981 C   0  0  0  0  0  0  0  0  0  0  0  0
   14.8831   -8.5441   11.9044 O   0  0  0  0  0  0  0  0  0  0  0  0
  3 29  1  0  0  0  0
  5 20  1  0  0  0  0
  7 23  1  0  0  0  0
  9 29  1  0  0  0  0
 10 26  1  0  0  0  0
 11 13  1  1  0  0  0
 11 14  1  0  0  0  0
 11 15  2  0  0  0  0
 11 30  1  0  0  0  0
 12 17  1  0  0  0  0
 12 18  1  1  0  0  0
 12 21  1  0  0  0  0
 12 24  2  0  0  0  0
 16  2  1  1  0  0  0
 16 17  1  0  0  0  0
 16 19  1  0  0  0  0
 16 28  1  0  0  0  0
 19  4  1  6  0  0  0
 19 20  1  0  0  0  0
 19 22  1  0  0  0  0
 22  8  1  1  0  0  0
 22 23  1  0  0  0  0
 22 25  1  0  0  0  0
 25  6  1  6  0  0  0
 25 26  1  0  0  0  0
 25 27  1  0  0  0  0
 27  1  1  1  0  0  0
 27 28  1  0  0  0  0
 27 29  1  0  0  0  0
 29 30  1  0  0  0  0
M  CHG  2  14  -1  21  -1
M  END
